/*--------------------------------*- C++ -*----------------------------------*\
  =========                 |
  \\      /  F ield         | OpenFOAM: The Open Source CFD Toolbox
   \\    /   O peration     | Website:  https://openfoam.org
    \\  /    A nd           | Version:  5.x 
     \\/     M anipulation  |
\*---------------------------------------------------------------------------*/
FoamFile
{
    version     2.0;
    format      ascii;
    class       dictionary;
    location    "system";
    object      foamDataToFluentDict;
}
// * * * * * * * * * * * * * * * * * * * * * * * * * * * * * * * * * * * * * //

p               1;

U               2;

p_rgh           3;

phi             4;

alpha.Phi0      5;

alpha.water     6;

epsilon         7;

k               8;

epsilon         9;

alpha1          10;


// ************************************************************************* //
